# ====================
# | Model parameters |
# ====================

# Continuous equation parameters
 &PARM01
 &

# Elliptic solver parameters
 &PARM02
 &

# Time stepping parameters
 &PARM03
 &

# Gridding parameters
 &PARM04
 usingSphericalPolarGrid=.TRUE.,
 delX=240*0.083333,
 delY=360*0.0625,
 xgOrigin=78,
 ygOrigin=5,
 &

# Input datasets
 &PARM05
 bathyFile = 'bay_of_bengal_bathymetry.bin,
 &